LAMMPS (1 Mar 2016)
# Compute elastic constant tensor for a crystal at finite temperature
#
# WARNING: This script attempts to measure small differences in
# statistical averages generated by finite temperature MD simulations.
# This creates many more opportunities for errors to occur, compared
# to the zero temperature version provided in examples/ELASTIC.
# Hence, it is always a good idea to start with the zero temperature
# calculation, before attempting to use this script.
#
# Written by Aidan Thompson (Sandia, athomps@sandia.gov)
#
#  This script uses the following three include files.
#
#   init.mod      (must be modified for different crystal structures)
# 	       	  Define units, MD parameters, deformation parameters,
#		  and initial configuration of the atoms and simulation cell.
#
#
#   potential.mod    (must be modified for different pair styles)
# 		     Define pair style and other attributes
#		     not stored in restart file
#
#
#   displace.mod    (displace.mod should not need to be modified)
# 		    Perform positive and negative box displacements
# 		    It uses the resultant changes
#		    in stress to compute one
# 		    row of the elastic stiffness tensor
#
#		    Inputs variables:
#		    	   dir = the Voigt deformation component
#		    		    (1,2,3,4,5,6)
#		    Global constants:
#       	    	   up = the deformation magnitude (strain units)
#       		   cfac = conversion from LAMMPS pressure units to
#               	   output units for elastic constants
#
#
#  To run this on a different system, it should only be necessary to
#  modify the files init.mod and potential.mod. In order to calculate
#  the elastic constants correctly, care must be taken to specify
#  the correct units in init.mod (units, cfac and cunits). It is also
#  important to verify that the MD sampling of stress components
#  is generating accurate statistical averages.
#  One indication of this is that the elastic constants are insensitive
#  check for finite size effects.
#

include init.mod
# NOTE: This script can be modified for different atomic structures,
# units, etc. See in.elastic for more info.
#

# Define the finite deformation size. Try several values of this
# variable to verify that results do not depend on it.
variable up equal 2.0e-2

# metal units, elastic constants in GPa
units		metal
variable cfac equal 1.0e-4
variable cunits string GPa

# Define MD parameters
variable nevery equal 10                  # sampling interval
variable nrepeat equal 10                 # number of samples
variable nfreq equal 10*10
variable nthermo equal 100
variable nequil equal 10*100
variable nrun equal 3*100
variable temp equal 300.0                 # temperature of initial sample
variable timestep equal 0.001             # timestep
variable mass1 equal 28.06                # mass
variable adiabatic equal 0                # adiabatic (1) or isothermal (2)
variable tdamp equal 0.01                 # time constant for thermostat
variable seed equal 123457                # seed for thermostat

# generate the box and atom positions using a diamond lattice
variable a equal 5.431

boundary	p p p

lattice         diamond $a
lattice         diamond 5.431
Lattice spacing in x,y,z = 5.431 5.431 5.431
region		box prism 0 3.0 0 3.0 0 3.0 0.0 0.0 0.0
create_box	1 box
Created triclinic box = (0 0 0) to (16.293 16.293 16.293) with tilt (0 0 0)
create_atoms	1 box
Created 216 atoms
mass 1 28.06
velocity	all create 300 87287

# Compute initial state

variable thermostat equal 1
include potential.mod
# NOTE: This script can be modified for different pair styles
# See in.elastic for more info.

reset_timestep 0

# Choose potential
pair_style	sw
pair_coeff * * Si.sw Si
Reading potential file Si.sw with DATE: 2007-06-11

# Setup neighbor style
neighbor 1.0 nsq
neigh_modify once no every 1 delay 0 check yes

# Setup output

fix avp all ave/time  10 10 100 c_thermo_press mode vector
thermo		100
thermo_style custom step temp pe press f_avp[1] f_avp[2] f_avp[3] f_avp[4] f_avp[5] f_avp[6]
thermo_modify norm no

# Setup MD

timestep 0.001
fix 4 all nve
fix 5 all langevin 300 300 0.01 123457

run 1000
  1 neighbor list requests
  update every 1 steps, delay 0 steps, check yes
Step Temp PotEng Press avp[1] avp[2] avp[3] avp[4] avp[5] avp[6]
0          300    -936.7056    2030.7885            0            0            0            0            0            0
Averages over the last 6 of 11 rows, steps 500 to 1000:
Temp PotEng Press avp[1] avp[2] avp[3] avp[4] avp[5] avp[6]
303.026 -928.311 3538.59 3633.77 3639.53 3517.11 -615.557 67.8227 119.61
Loop time of 0.554357 on 1 procs for 1000 steps with 216 atoms

variable thermostat equal 1

print 1
1

include potential.mod
# NOTE: This script can be modified for different pair styles
# See in.elastic for more info.

reset_timestep 0

# Choose potential
pair_style	sw
pair_coeff * * Si.sw Si
Reading potential file Si.sw with DATE: 2007-06-11

# Setup neighbor style
neighbor 1.0 nsq
neigh_modify once no every 1 delay 0 check yes

# Setup output

fix avp all ave/time  10 10 100 c_thermo_press mode vector
thermo		100
thermo_style custom step temp pe press f_avp[1] f_avp[2] f_avp[3] f_avp[4] f_avp[5] f_avp[6]
thermo_modify norm no

# Setup MD

timestep 0.001
fix 4 all nve
fix 5 all langevin 300 300 0.01 123457

run 300
Step Temp PotEng Press avp[1] avp[2] avp[3] avp[4] avp[5] avp[6]
0    283.36617   -928.40306    3243.5587            0            0            0            0            0            0
Loop time of 0.183242 on 1 procs for 300 steps with 216 atoms

variable pxx0 equal f_avp[1]
variable pyy0 equal f_avp[2]
variable pzz0 equal f_avp[3]
variable pxy0 equal f_avp[4]
variable pxz0 equal f_avp[5]
variable pyz0 equal f_avp[6]

variable tmp equal lx
variable lx0 equal 16.293
variable tmp equal ly
variable ly0 equal 16.293
variable tmp equal lz
variable lz0 equal 16.293

# These formulas define the derivatives w.r.t. strain components
# Constants uses $, variables use v_
variable d1 equal -(v_pxx1-3540.88688880179)/(v_delta/v_len0)*0.0001
variable d2 equal -(v_pyy1-3820.49552694769)/(v_delta/v_len0)*0.0001
variable d3 equal -(v_pzz1-3533.98458860133)/(v_delta/v_len0)*0.0001
variable d4 equal -(v_pyz1--600.049263335114)/(v_delta/v_len0)*0.0001
variable d5 equal -(v_pxz1--117.91401933812)/(v_delta/v_len0)*0.0001
variable d6 equal -(v_pxy1--544.493001729104)/(v_delta/v_len0)*0.0001

# Write restart
write_restart restart.equil

# uxx Perturbation

variable dir equal 1
include displace.mod
# NOTE: This script should not need to be
# modified. See in.elastic for more info.
#
# Find which reference length to use

variable len0 equal 16.293

# Reset box and simulation parameters

clear
box tilt large
read_restart restart.equil
  triclinic box = (0 0 0) to (16.293 16.293 16.293) with tilt (0 0 0)
  216 atoms
include potential.mod
# NOTE: This script can be modified for different pair styles
# See in.elastic for more info.

reset_timestep 0

# Choose potential
pair_style	sw
pair_coeff * * Si.sw Si
Reading potential file Si.sw with DATE: 2007-06-11

# Setup neighbor style
neighbor 1.0 nsq
neigh_modify once no every 1 delay 0 check yes

# Setup output

fix avp all ave/time  10 10 100 c_thermo_press mode vector
thermo		100
thermo_style custom step temp pe press f_avp[1] f_avp[2] f_avp[3] f_avp[4] f_avp[5] f_avp[6]
thermo_modify norm no

# Setup MD

timestep 0.001
fix 4 all nve
fix 5 all langevin 300 300 0.01 123457

# Negative deformation

variable delta equal -0.02*16.293
variable deltaxy equal -0.02*xy
variable deltaxz equal -0.02*xz
variable deltayz equal -0.02*yz
change_box all x delta 0 -0.32586 xy delta -0 xz delta -0 remap units box
  triclinic box = (0 0 0) to (15.9671 16.293 16.293) with tilt (0 0 0)
  triclinic box = (0 0 0) to (15.9671 16.293 16.293) with tilt (0 0 0)
  triclinic box = (0 0 0) to (15.9671 16.293 16.293) with tilt (0 0 0)

# Run MD

run 1000
  1 neighbor list requests
  update every 1 steps, delay 0 steps, check yes
Step Temp PotEng Press avp[1] avp[2] avp[3] avp[4] avp[5] avp[6]
0    311.03943   -926.52118    24879.292            0            0            0            0            0            0
Averages over the last 6 of 11 rows, steps 500 to 1000:
Temp PotEng Press avp[1] avp[2] avp[3] avp[4] avp[5] avp[6]
302.872 -927.469 24564.8 34281.9 19855.9 19744.9 -637.964 74.1443 126.62
Loop time of 0.768902 on 1 procs for 1000 steps with 216 atoms

include potential.mod
# NOTE: This script can be modified for different pair styles
# See in.elastic for more info.

reset_timestep 0

# Choose potential
pair_style	sw
pair_coeff * * Si.sw Si
Reading potential file Si.sw with DATE: 2007-06-11

# Setup neighbor style
neighbor 1.0 nsq
neigh_modify once no every 1 delay 0 check yes

# Setup output

fix avp all ave/time  10 10 100 c_thermo_press mode vector
thermo		100
thermo_style custom step temp pe press f_avp[1] f_avp[2] f_avp[3] f_avp[4] f_avp[5] f_avp[6]
thermo_modify norm no

# Setup MD

timestep 0.001
fix 4 all nve
fix 5 all langevin 300 300 0.01 123457

run 300
Step Temp PotEng Press avp[1] avp[2] avp[3] avp[4] avp[5] avp[6]
0    283.51112   -927.57878    24266.796            0            0            0            0            0            0
Loop time of 0.232962 on 1 procs for 300 steps with 216 atoms

# Obtain new stress tensor

variable pxx1 equal f_avp[1]
variable pyy1 equal f_avp[2]
variable pzz1 equal f_avp[3]
variable pxy1 equal f_avp[4]
variable pxz1 equal f_avp[5]
variable pyz1 equal f_avp[6]

# Compute elastic constant from pressure tensor

variable C1neg equal 153.104907313306
variable C2neg equal 81.1298980576771
variable C3neg equal 81.1003992772799
variable C4neg equal -0.15031191922569
variable C5neg equal 0.181970554244755
variable C6neg equal -0.189042867116655

# Reset box and simulation parameters

clear
box tilt large
read_restart restart.equil
  triclinic box = (0 0 0) to (16.293 16.293 16.293) with tilt (0 0 0)
  216 atoms
include potential.mod
# NOTE: This script can be modified for different pair styles
# See in.elastic for more info.

reset_timestep 0

# Choose potential
pair_style	sw
pair_coeff * * Si.sw Si
Reading potential file Si.sw with DATE: 2007-06-11

# Setup neighbor style
neighbor 1.0 nsq
neigh_modify once no every 1 delay 0 check yes

# Setup output

fix avp all ave/time  10 10 100 c_thermo_press mode vector
thermo		100
thermo_style custom step temp pe press f_avp[1] f_avp[2] f_avp[3] f_avp[4] f_avp[5] f_avp[6]
thermo_modify norm no

# Setup MD

timestep 0.001
fix 4 all nve
fix 5 all langevin 300 300 0.01 123457

# Positive deformation

variable delta equal 0.02*16.293
variable deltaxy equal 0.02*xy
variable deltaxz equal 0.02*xz
variable deltayz equal 0.02*yz
change_box all x delta 0 0.32586 xy delta 0 xz delta 0 remap units box
  triclinic box = (0 0 0) to (16.6189 16.293 16.293) with tilt (0 0 0)
  triclinic box = (0 0 0) to (16.6189 16.293 16.293) with tilt (0 0 0)
  triclinic box = (0 0 0) to (16.6189 16.293 16.293) with tilt (0 0 0)

# Run MD

run 1000
  1 neighbor list requests
  update every 1 steps, delay 0 steps, check yes
Step Temp PotEng Press avp[1] avp[2] avp[3] avp[4] avp[5] avp[6]
0    311.03943   -926.68514   -15859.701            0            0            0            0            0            0
Averages over the last 6 of 11 rows, steps 500 to 1000:
Temp PotEng Press avp[1] avp[2] avp[3] avp[4] avp[5] avp[6]
303.194 -927.502 -16070.2 -25723.6 -11108.6 -11219.4 -598.788 62.5041 115.49
Loop time of 0.472358 on 1 procs for 1000 steps with 216 atoms

include potential.mod
# NOTE: This script can be modified for different pair styles
# See in.elastic for more info.

reset_timestep 0

# Choose potential
pair_style	sw
pair_coeff * * Si.sw Si
Reading potential file Si.sw with DATE: 2007-06-11

# Setup neighbor style
neighbor 1.0 nsq
neigh_modify once no every 1 delay 0 check yes

# Setup output

fix avp all ave/time  10 10 100 c_thermo_press mode vector
thermo		100
thermo_style custom step temp pe press f_avp[1] f_avp[2] f_avp[3] f_avp[4] f_avp[5] f_avp[6]
thermo_modify norm no

# Setup MD

timestep 0.001
fix 4 all nve
fix 5 all langevin 300 300 0.01 123457

run 300
Step Temp PotEng Press avp[1] avp[2] avp[3] avp[4] avp[5] avp[6]
0    283.19341   -927.57867   -16356.233            0            0            0            0            0            0
Loop time of 0.139254 on 1 procs for 300 steps with 216 atoms

# Obtain new stress tensor

variable tmp equal pe
variable e1 equal -926.601564155302
variable tmp equal press
variable p1 equal -15814.8847420532
variable tmp equal pxx
variable pxx1 equal -26017.4737809015
variable tmp equal pyy
variable pyy1 equal -10817.7582899218
variable tmp equal pzz
variable pzz1 equal -10609.4221553362
variable tmp equal pxy
variable pxy1 equal -3370.06492453015
variable tmp equal pxz
variable pxz1 equal 3417.59015600687
variable tmp equal pyz
variable pyz1 equal -256.443540368971

# Compute elastic constant from pressure tensor

variable C1pos equal 147.791803348516
variable C2pos equal 73.1912690843475
variable C3pos equal 70.7170337196877
variable C4pos equal -1.71802861483072
variable C5pos equal -17.677520876725
variable C6pos equal 14.1278596140052

# Combine positive and negative

variable C11 equal 0.5*(153.104907313306+147.791803348516)
variable C21 equal 0.5*(81.1298980576771+73.1912690843475)
variable C31 equal 0.5*(81.1003992772799+70.7170337196877)
variable C41 equal 0.5*(-0.15031191922569+-1.71802861483072)
variable C51 equal 0.5*(0.181970554244755+-17.677520876725)
variable C61 equal 0.5*(-0.189042867116655+14.1278596140052)

# Delete dir to make sure it is not reused

variable dir delete

# uyy Perturbation

variable dir equal 2
include displace.mod
# NOTE: This script should not need to be
# modified. See in.elastic for more info.
#
# Find which reference length to use

variable len0 equal 16.293

# Reset box and simulation parameters

clear
box tilt large
read_restart restart.equil
  triclinic box = (0 0 0) to (16.293 16.293 16.293) with tilt (0 0 0)
  216 atoms
include potential.mod
# NOTE: This script can be modified for different pair styles
# See in.elastic for more info.

reset_timestep 0

# Choose potential
pair_style	sw
pair_coeff * * Si.sw Si
Reading potential file Si.sw with DATE: 2007-06-11

# Setup neighbor style
neighbor 1.0 nsq
neigh_modify once no every 1 delay 0 check yes

# Setup output

fix avp all ave/time  10 10 100 c_thermo_press mode vector
thermo		100
thermo_style custom step temp pe press f_avp[1] f_avp[2] f_avp[3] f_avp[4] f_avp[5] f_avp[6]
thermo_modify norm no

# Setup MD

timestep 0.001
fix 4 all nve
fix 5 all langevin 300 300 0.01 123457

# Negative deformation

variable delta equal -0.02*16.293
variable deltaxy equal -0.02*xy
variable deltaxz equal -0.02*xz
variable deltayz equal -0.02*yz
change_box all y delta 0 -0.32586 yz delta -0 remap units box
  triclinic box = (0 0 0) to (16.293 15.9671 16.293) with tilt (0 0 0)
  triclinic box = (0 0 0) to (16.293 15.9671 16.293) with tilt (0 0 0)

# Run MD

run 1000
  1 neighbor list requests
  update every 1 steps, delay 0 steps, check yes
Step Temp PotEng Press avp[1] avp[2] avp[3] avp[4] avp[5] avp[6]
0    311.03943   -926.48866    24874.869            0            0            0            0            0            0
Averages over the last 6 of 11 rows, steps 500 to 1000:
Temp PotEng Press avp[1] avp[2] avp[3] avp[4] avp[5] avp[6]
302.875 -927.468 24571.8 19857 34281.6 19742.6 -634.586 67.8946 127.103
Loop time of 0.760058 on 1 procs for 1000 steps with 216 atoms

include potential.mod
# NOTE: This script can be modified for different pair styles
# See in.elastic for more info.

reset_timestep 0

# Choose potential
pair_style	sw
pair_coeff * * Si.sw Si
Reading potential file Si.sw with DATE: 2007-06-11

# Setup neighbor style
neighbor 1.0 nsq
neigh_modify once no every 1 delay 0 check yes

# Setup output

fix avp all ave/time  10 10 100 c_thermo_press mode vector
thermo		100
thermo_style custom step temp pe press f_avp[1] f_avp[2] f_avp[3] f_avp[4] f_avp[5] f_avp[6]
thermo_modify norm no

# Setup MD

timestep 0.001
fix 4 all nve
fix 5 all langevin 300 300 0.01 123457

run 300
Step Temp PotEng Press avp[1] avp[2] avp[3] avp[4] avp[5] avp[6]
0    283.57201   -927.58284    24274.562            0            0            0            0            0            0
Loop time of 0.227188 on 1 procs for 300 steps with 216 atoms

# Obtain new stress tensor

variable pxx1 equal f_avp[1]
variable pyy1 equal f_avp[2]
variable pzz1 equal f_avp[3]
variable pxy1 equal f_avp[4]
variable pxz1 equal f_avp[5]
variable pyz1 equal f_avp[6]

# Compute elastic constant from pressure tensor

variable C1neg equal 81.0763456557976
variable C2neg equal 153.189104672892
variable C3neg equal 80.9930197326454
variable C4neg equal 0.00123591895111986
variable C5neg equal 0.141840778367562
variable C6neg equal -0.178696029378745

# Reset box and simulation parameters

clear
box tilt large
read_restart restart.equil
  triclinic box = (0 0 0) to (16.293 16.293 16.293) with tilt (0 0 0)
  216 atoms
include potential.mod
# NOTE: This script can be modified for different pair styles
# See in.elastic for more info.

reset_timestep 0

# Choose potential
pair_style	sw
pair_coeff * * Si.sw Si
Reading potential file Si.sw with DATE: 2007-06-11

# Setup neighbor style
neighbor 1.0 nsq
neigh_modify once no every 1 delay 0 check yes

# Setup output

fix avp all ave/time  10 10 100 c_thermo_press mode vector
thermo		100
thermo_style custom step temp pe press f_avp[1] f_avp[2] f_avp[3] f_avp[4] f_avp[5] f_avp[6]
thermo_modify norm no

# Setup MD

timestep 0.001
fix 4 all nve
fix 5 all langevin 300 300 0.01 123457

# Positive deformation

variable delta equal 0.02*16.293
variable deltaxy equal 0.02*xy
variable deltaxz equal 0.02*xz
variable deltayz equal 0.02*yz
change_box all y delta 0 0.32586 yz delta 0 remap units box
  triclinic box = (0 0 0) to (16.293 16.6189 16.293) with tilt (0 0 0)
  triclinic box = (0 0 0) to (16.293 16.6189 16.293) with tilt (0 0 0)

# Run MD

run 1000
  1 neighbor list requests
  update every 1 steps, delay 0 steps, check yes
Step Temp PotEng Press avp[1] avp[2] avp[3] avp[4] avp[5] avp[6]
0    311.03943   -926.71698   -15853.646            0            0            0            0            0            0
Averages over the last 6 of 11 rows, steps 500 to 1000:
Temp PotEng Press avp[1] avp[2] avp[3] avp[4] avp[5] avp[6]
303.186 -927.503 -16074.3 -11108.1 -25726.7 -11218.2 -602.002 66.1699 115.932
Loop time of 0.473597 on 1 procs for 1000 steps with 216 atoms

include potential.mod
# NOTE: This script can be modified for different pair styles
# See in.elastic for more info.

reset_timestep 0

# Choose potential
pair_style	sw
pair_coeff * * Si.sw Si
Reading potential file Si.sw with DATE: 2007-06-11

# Setup neighbor style
neighbor 1.0 nsq
neigh_modify once no every 1 delay 0 check yes

# Setup output

fix avp all ave/time  10 10 100 c_thermo_press mode vector
thermo		100
thermo_style custom step temp pe press f_avp[1] f_avp[2] f_avp[3] f_avp[4] f_avp[5] f_avp[6]
thermo_modify norm no

# Setup MD

timestep 0.001
fix 4 all nve
fix 5 all langevin 300 300 0.01 123457

run 300
Step Temp PotEng Press avp[1] avp[2] avp[3] avp[4] avp[5] avp[6]
0    283.13787   -927.57422   -16358.047            0            0            0            0            0            0
Loop time of 0.140975 on 1 procs for 300 steps with 216 atoms

# Obtain new stress tensor

variable tmp equal pe
variable e1 equal -926.609552908628
variable tmp equal press
variable p1 equal -15798.4799866279
variable tmp equal pxx
variable pxx1 equal -11458.0196100511
variable tmp equal pyy
variable pyy1 equal -25374.6411131092
variable tmp equal pzz
variable pzz1 equal -10562.7792367235
variable tmp equal pxy
variable pxy1 equal -3369.29989257718
variable tmp equal pxz
variable pxz1 equal 3347.50165406324
variable tmp equal pyz
variable pyz1 equal -298.283468034999

# Compute elastic constant from pressure tensor

variable C1pos equal 74.9945324942644
variable C2pos equal 145.975683200284
variable C3pos equal 70.4838191266242
variable C4pos equal -1.50882897650058
variable C5pos equal -17.3270783670068
variable C6pos equal 14.1240344542404

# Combine positive and negative

variable C12 equal 0.5*(81.0763456557976+74.9945324942644)
variable C22 equal 0.5*(153.189104672892+145.975683200284)
variable C32 equal 0.5*(80.9930197326454+70.4838191266242)
variable C42 equal 0.5*(0.00123591895111986+-1.50882897650058)
variable C52 equal 0.5*(0.141840778367562+-17.3270783670068)
variable C62 equal 0.5*(-0.178696029378745+14.1240344542404)

# Delete dir to make sure it is not reused

variable dir delete

# uzz Perturbation

variable dir equal 3
include displace.mod
# NOTE: This script should not need to be
# modified. See in.elastic for more info.
#
# Find which reference length to use

variable len0 equal 16.293

# Reset box and simulation parameters

clear
box tilt large
read_restart restart.equil
  triclinic box = (0 0 0) to (16.293 16.293 16.293) with tilt (0 0 0)
  216 atoms
include potential.mod
# NOTE: This script can be modified for different pair styles
# See in.elastic for more info.

reset_timestep 0

# Choose potential
pair_style	sw
pair_coeff * * Si.sw Si
Reading potential file Si.sw with DATE: 2007-06-11

# Setup neighbor style
neighbor 1.0 nsq
neigh_modify once no every 1 delay 0 check yes

# Setup output

fix avp all ave/time  10 10 100 c_thermo_press mode vector
thermo		100
thermo_style custom step temp pe press f_avp[1] f_avp[2] f_avp[3] f_avp[4] f_avp[5] f_avp[6]
thermo_modify norm no

# Setup MD

timestep 0.001
fix 4 all nve
fix 5 all langevin 300 300 0.01 123457

# Negative deformation

variable delta equal -0.02*16.293
variable deltaxy equal -0.02*xy
variable deltaxz equal -0.02*xz
variable deltayz equal -0.02*yz
change_box all z delta 0 -0.32586 remap units box
  triclinic box = (0 0 0) to (16.293 16.293 15.9671) with tilt (0 0 0)

# Run MD

run 1000
  1 neighbor list requests
  update every 1 steps, delay 0 steps, check yes
Step Temp PotEng Press avp[1] avp[2] avp[3] avp[4] avp[5] avp[6]
0    311.03943   -926.49479    24864.494            0            0            0            0            0            0
Averages over the last 6 of 11 rows, steps 500 to 1000:
Temp PotEng Press avp[1] avp[2] avp[3] avp[4] avp[5] avp[6]
302.907 -927.467 24568.5 19854.9 19852.2 34161.9 -636.982 76.0467 126.554
Loop time of 0.758527 on 1 procs for 1000 steps with 216 atoms

include potential.mod
# NOTE: This script can be modified for different pair styles
# See in.elastic for more info.

reset_timestep 0

# Choose potential
pair_style	sw
pair_coeff * * Si.sw Si
Reading potential file Si.sw with DATE: 2007-06-11

# Setup neighbor style
neighbor 1.0 nsq
neigh_modify once no every 1 delay 0 check yes

# Setup output

fix avp all ave/time  10 10 100 c_thermo_press mode vector
thermo		100
thermo_style custom step temp pe press f_avp[1] f_avp[2] f_avp[3] f_avp[4] f_avp[5] f_avp[6]
thermo_modify norm no

# Setup MD

timestep 0.001
fix 4 all nve
fix 5 all langevin 300 300 0.01 123457

run 300
Step Temp PotEng Press avp[1] avp[2] avp[3] avp[4] avp[5] avp[6]
0    283.64364   -927.57602    24267.822            0            0            0            0            0            0
Loop time of 0.231247 on 1 procs for 300 steps with 216 atoms

# Obtain new stress tensor

variable pxx1 equal f_avp[1]
variable pyy1 equal f_avp[2]
variable pzz1 equal f_avp[3]
variable pxy1 equal f_avp[4]
variable pxz1 equal f_avp[5]
variable pyz1 equal f_avp[6]

# Compute elastic constant from pressure tensor

variable C1neg equal 81.0833689706601
variable C2neg equal 81.0594903179561
variable C3neg equal 153.03549354105
variable C4neg equal -0.0432259701215497
variable C5neg equal 0.175829739431834
variable C6neg equal -0.191349784570555

# Reset box and simulation parameters

clear
box tilt large
read_restart restart.equil
  triclinic box = (0 0 0) to (16.293 16.293 16.293) with tilt (0 0 0)
  216 atoms
include potential.mod
# NOTE: This script can be modified for different pair styles
# See in.elastic for more info.

reset_timestep 0

# Choose potential
pair_style	sw
pair_coeff * * Si.sw Si
Reading potential file Si.sw with DATE: 2007-06-11

# Setup neighbor style
neighbor 1.0 nsq
neigh_modify once no every 1 delay 0 check yes

# Setup output

fix avp all ave/time  10 10 100 c_thermo_press mode vector
thermo		100
thermo_style custom step temp pe press f_avp[1] f_avp[2] f_avp[3] f_avp[4] f_avp[5] f_avp[6]
thermo_modify norm no

# Setup MD

timestep 0.001
fix 4 all nve
fix 5 all langevin 300 300 0.01 123457

# Positive deformation

variable delta equal 0.02*16.293
variable deltaxy equal 0.02*xy
variable deltaxz equal 0.02*xz
variable deltayz equal 0.02*yz
change_box all z delta 0 0.32586 remap units box
  triclinic box = (0 0 0) to (16.293 16.293 16.6189) with tilt (0 0 0)

# Run MD

run 1000
  1 neighbor list requests
  update every 1 steps, delay 0 steps, check yes
Step Temp PotEng Press avp[1] avp[2] avp[3] avp[4] avp[5] avp[6]
0    311.03943   -926.71158   -15851.431            0            0            0            0            0            0
Averages over the last 6 of 11 rows, steps 500 to 1000:
Temp PotEng Press avp[1] avp[2] avp[3] avp[4] avp[5] avp[6]
303.137 -927.503 -16071.6 -11109 -11109.1 -25828.1 -599.943 60.9707 116.102
Loop time of 0.477544 on 1 procs for 1000 steps with 216 atoms

include potential.mod
# NOTE: This script can be modified for different pair styles
# See in.elastic for more info.

reset_timestep 0

# Choose potential
pair_style	sw
pair_coeff * * Si.sw Si
Reading potential file Si.sw with DATE: 2007-06-11

# Setup neighbor style
neighbor 1.0 nsq
neigh_modify once no every 1 delay 0 check yes

# Setup output

fix avp all ave/time  10 10 100 c_thermo_press mode vector
thermo		100
thermo_style custom step temp pe press f_avp[1] f_avp[2] f_avp[3] f_avp[4] f_avp[5] f_avp[6]
thermo_modify norm no

# Setup MD

timestep 0.001
fix 4 all nve
fix 5 all langevin 300 300 0.01 123457

run 300
Step Temp PotEng Press avp[1] avp[2] avp[3] avp[4] avp[5] avp[6]
0    283.05096   -927.58052   -16359.774            0            0            0            0            0            0
Loop time of 0.139981 on 1 procs for 300 steps with 216 atoms

# Obtain new stress tensor

variable tmp equal pe
variable e1 equal -926.609597160976
variable tmp equal press
variable p1 equal -15796.0186813964
variable tmp equal pxx
variable pxx1 equal -11462.6090011196
variable tmp equal pyy
variable pyy1 equal -10775.3245502608
variable tmp equal pzz
variable pzz1 equal -25150.1224928087
variable tmp equal pxy
variable pxy1 equal -3329.85359340571
variable tmp equal pxz
variable pxz1 equal 3393.00232214628
variable tmp equal pyz
variable pyz1 equal -302.995849000297

# Compute elastic constant from pressure tensor

variable C1pos equal 75.017479449607
variable C2pos equal 72.9791003860425
variable C3pos equal 143.42053540705
variable C4pos equal -1.48526707167409
variable C5pos equal -17.554581707422
variable C6pos equal 13.926802958383

# Combine positive and negative

variable C13 equal 0.5*(81.0833689706601+75.017479449607)
variable C23 equal 0.5*(81.0594903179561+72.9791003860425)
variable C33 equal 0.5*(153.03549354105+143.42053540705)
variable C43 equal 0.5*(-0.0432259701215497+-1.48526707167409)
variable C53 equal 0.5*(0.175829739431834+-17.554581707422)
variable C63 equal 0.5*(-0.191349784570555+13.926802958383)

# Delete dir to make sure it is not reused

variable dir delete

# uyz Perturbation

variable dir equal 4
include displace.mod
# NOTE: This script should not need to be
# modified. See in.elastic for more info.
#
# Find which reference length to use

variable len0 equal 16.293

# Reset box and simulation parameters

clear
box tilt large
read_restart restart.equil
  triclinic box = (0 0 0) to (16.293 16.293 16.293) with tilt (0 0 0)
  216 atoms
include potential.mod
# NOTE: This script can be modified for different pair styles
# See in.elastic for more info.

reset_timestep 0

# Choose potential
pair_style	sw
pair_coeff * * Si.sw Si
Reading potential file Si.sw with DATE: 2007-06-11

# Setup neighbor style
neighbor 1.0 nsq
neigh_modify once no every 1 delay 0 check yes

# Setup output

fix avp all ave/time  10 10 100 c_thermo_press mode vector
thermo		100
thermo_style custom step temp pe press f_avp[1] f_avp[2] f_avp[3] f_avp[4] f_avp[5] f_avp[6]
thermo_modify norm no

# Setup MD

timestep 0.001
fix 4 all nve
fix 5 all langevin 300 300 0.01 123457

# Negative deformation

variable delta equal -0.02*16.293
variable deltaxy equal -0.02*xy
variable deltaxz equal -0.02*xz
variable deltayz equal -0.02*yz
change_box all yz delta -0.32586 remap units box
  triclinic box = (0 0 0) to (16.293 16.293 16.293) with tilt (0 0 -0.32586)

# Run MD

run 1000
  1 neighbor list requests
  update every 1 steps, delay 0 steps, check yes
Step Temp PotEng Press avp[1] avp[2] avp[3] avp[4] avp[5] avp[6]
0    311.03943    -926.8429    3957.3884            0            0            0            0            0            0
Averages over the last 6 of 11 rows, steps 500 to 1000:
Temp PotEng Press avp[1] avp[2] avp[3] avp[4] avp[5] avp[6]
303.032 -927.999 3443.05 3576.74 3390.61 3581.93 -616.11 33.8407 11155.3
Loop time of 0.598222 on 1 procs for 1000 steps with 216 atoms

include potential.mod
# NOTE: This script can be modified for different pair styles
# See in.elastic for more info.

reset_timestep 0

# Choose potential
pair_style	sw
pair_coeff * * Si.sw Si
Reading potential file Si.sw with DATE: 2007-06-11

# Setup neighbor style
neighbor 1.0 nsq
neigh_modify once no every 1 delay 0 check yes

# Setup output

fix avp all ave/time  10 10 100 c_thermo_press mode vector
thermo		100
thermo_style custom step temp pe press f_avp[1] f_avp[2] f_avp[3] f_avp[4] f_avp[5] f_avp[6]
thermo_modify norm no

# Setup MD

timestep 0.001
fix 4 all nve
fix 5 all langevin 300 300 0.01 123457

run 300
Step Temp PotEng Press avp[1] avp[2] avp[3] avp[4] avp[5] avp[6]
0    283.50818    -928.0981    3213.4603            0            0            0            0            0            0
Loop time of 0.174731 on 1 procs for 300 steps with 216 atoms

# Obtain new stress tensor

variable pxx1 equal f_avp[1]
variable pyy1 equal f_avp[2]
variable pzz1 equal f_avp[3]
variable pxy1 equal f_avp[4]
variable pxz1 equal f_avp[5]
variable pyz1 equal f_avp[6]

# Compute elastic constant from pressure tensor

variable C1neg equal -0.4034659419224
variable C2neg equal -1.0474328823331
variable C3neg equal 0.23212108591345
variable C4neg equal 55.1256532257991
variable C5neg equal -0.101404438858945
variable C6neg equal -0.0381620649745952

# Reset box and simulation parameters

clear
box tilt large
read_restart restart.equil
  triclinic box = (0 0 0) to (16.293 16.293 16.293) with tilt (0 0 0)
  216 atoms
include potential.mod
# NOTE: This script can be modified for different pair styles
# See in.elastic for more info.

reset_timestep 0

# Choose potential
pair_style	sw
pair_coeff * * Si.sw Si
Reading potential file Si.sw with DATE: 2007-06-11

# Setup neighbor style
neighbor 1.0 nsq
neigh_modify once no every 1 delay 0 check yes

# Setup output

fix avp all ave/time  10 10 100 c_thermo_press mode vector
thermo		100
thermo_style custom step temp pe press f_avp[1] f_avp[2] f_avp[3] f_avp[4] f_avp[5] f_avp[6]
thermo_modify norm no

# Setup MD

timestep 0.001
fix 4 all nve
fix 5 all langevin 300 300 0.01 123457

# Positive deformation

variable delta equal 0.02*16.293
variable deltaxy equal 0.02*xy
variable deltaxz equal 0.02*xz
variable deltayz equal 0.02*yz
change_box all yz delta 0.32586 remap units box
  triclinic box = (0 0 0) to (16.293 16.293 16.293) with tilt (0 0 0.32586)

# Run MD

run 1000
  1 neighbor list requests
  update every 1 steps, delay 0 steps, check yes
Step Temp PotEng Press avp[1] avp[2] avp[3] avp[4] avp[5] avp[6]
0    311.03943   -926.80955    3931.1111            0            0            0            0            0            0
Averages over the last 6 of 11 rows, steps 500 to 1000:
Temp PotEng Press avp[1] avp[2] avp[3] avp[4] avp[5] avp[6]
303.033 -927.999 3474.01 3569.11 3390.35 3572.64 -618.13 100.076 -10912.5
Loop time of 0.59645 on 1 procs for 1000 steps with 216 atoms

include potential.mod
# NOTE: This script can be modified for different pair styles
# See in.elastic for more info.

reset_timestep 0

# Choose potential
pair_style	sw
pair_coeff * * Si.sw Si
Reading potential file Si.sw with DATE: 2007-06-11

# Setup neighbor style
neighbor 1.0 nsq
neigh_modify once no every 1 delay 0 check yes

# Setup output

fix avp all ave/time  10 10 100 c_thermo_press mode vector
thermo		100
thermo_style custom step temp pe press f_avp[1] f_avp[2] f_avp[3] f_avp[4] f_avp[5] f_avp[6]
thermo_modify norm no

# Setup MD

timestep 0.001
fix 4 all nve
fix 5 all langevin 300 300 0.01 123457

run 300
Step Temp PotEng Press avp[1] avp[2] avp[3] avp[4] avp[5] avp[6]
0    283.19638   -928.08728    3115.4223            0            0            0            0            0            0
Loop time of 0.178274 on 1 procs for 300 steps with 216 atoms

# Obtain new stress tensor

variable tmp equal pe
variable e1 equal -927.098409179801
variable tmp equal press
variable p1 equal 3677.58791891261
variable tmp equal pxx
variable pxx1 equal 3247.90269848715
variable tmp equal pyy
variable pyy1 equal 3638.29121824076
variable tmp equal pzz
variable pzz1 equal 4146.56984000991
variable tmp equal pxy
variable pxy1 equal -3441.39513845425
variable tmp equal pxz
variable pxz1 equal 3719.7957361078
variable tmp equal pyz
variable pyz1 equal -11246.7945739564

# Compute elastic constant from pressure tensor

variable C1pos equal 1.4649209515732
variable C2pos equal 0.91102154353465
variable C3pos equal -3.0629262570429
variable C4pos equal 53.2337265531064
variable C5pos equal -19.1885487772296
variable C6pos equal 14.4845106836257

# Combine positive and negative

variable C14 equal 0.5*(-0.4034659419224+1.4649209515732)
variable C24 equal 0.5*(-1.0474328823331+0.91102154353465)
variable C34 equal 0.5*(0.23212108591345+-3.0629262570429)
variable C44 equal 0.5*(55.1256532257991+53.2337265531064)
variable C54 equal 0.5*(-0.101404438858945+-19.1885487772296)
variable C64 equal 0.5*(-0.0381620649745952+14.4845106836257)

# Delete dir to make sure it is not reused

variable dir delete

# uxz Perturbation

variable dir equal 5
include displace.mod
# NOTE: This script should not need to be
# modified. See in.elastic for more info.
#
# Find which reference length to use

variable len0 equal 16.293

# Reset box and simulation parameters

clear
box tilt large
read_restart restart.equil
  triclinic box = (0 0 0) to (16.293 16.293 16.293) with tilt (0 0 0)
  216 atoms
include potential.mod
# NOTE: This script can be modified for different pair styles
# See in.elastic for more info.

reset_timestep 0

# Choose potential
pair_style	sw
pair_coeff * * Si.sw Si
Reading potential file Si.sw with DATE: 2007-06-11

# Setup neighbor style
neighbor 1.0 nsq
neigh_modify once no every 1 delay 0 check yes

# Setup output

fix avp all ave/time  10 10 100 c_thermo_press mode vector
thermo		100
thermo_style custom step temp pe press f_avp[1] f_avp[2] f_avp[3] f_avp[4] f_avp[5] f_avp[6]
thermo_modify norm no

# Setup MD

timestep 0.001
fix 4 all nve
fix 5 all langevin 300 300 0.01 123457

# Negative deformation

variable delta equal -0.02*16.293
variable deltaxy equal -0.02*xy
variable deltaxz equal -0.02*xz
variable deltayz equal -0.02*yz
change_box all xz delta -0.32586 remap units box
  triclinic box = (0 0 0) to (16.293 16.293 16.293) with tilt (0 -0.32586 0)

# Run MD

run 1000
  1 neighbor list requests
  update every 1 steps, delay 0 steps, check yes
Step Temp PotEng Press avp[1] avp[2] avp[3] avp[4] avp[5] avp[6]
0    311.03943   -926.62331    4056.3145            0            0            0            0            0            0
Averages over the last 6 of 11 rows, steps 500 to 1000:
Temp PotEng Press avp[1] avp[2] avp[3] avp[4] avp[5] avp[6]
302.963 -928.001 3461.27 3396.47 3573.17 3587.28 -616.397 11105.5 89.07
Loop time of 0.611326 on 1 procs for 1000 steps with 216 atoms

include potential.mod
# NOTE: This script can be modified for different pair styles
# See in.elastic for more info.

reset_timestep 0

# Choose potential
pair_style	sw
pair_coeff * * Si.sw Si
Reading potential file Si.sw with DATE: 2007-06-11

# Setup neighbor style
neighbor 1.0 nsq
neigh_modify once no every 1 delay 0 check yes

# Setup output

fix avp all ave/time  10 10 100 c_thermo_press mode vector
thermo		100
thermo_style custom step temp pe press f_avp[1] f_avp[2] f_avp[3] f_avp[4] f_avp[5] f_avp[6]
thermo_modify norm no

# Setup MD

timestep 0.001
fix 4 all nve
fix 5 all langevin 300 300 0.01 123457

run 300
Step Temp PotEng Press avp[1] avp[2] avp[3] avp[4] avp[5] avp[6]
0    283.37334   -928.10135    3152.0263            0            0            0            0            0            0
Loop time of 0.18132 on 1 procs for 300 steps with 216 atoms

# Obtain new stress tensor

variable pxx1 equal f_avp[1]
variable pyy1 equal f_avp[2]
variable pzz1 equal f_avp[3]
variable pxy1 equal f_avp[4]
variable pxz1 equal f_avp[5]
variable pyz1 equal f_avp[6]

# Compute elastic constant from pressure tensor

variable C1neg equal -1.13558672000245
variable C2neg equal -0.300070143146349
variable C3neg equal 0.294472246340051
variable C4neg equal -0.0959643774693348
variable C5neg equal 55.1663167446701
variable C6neg equal 0.00415075387011996

# Reset box and simulation parameters

clear
box tilt large
read_restart restart.equil
  triclinic box = (0 0 0) to (16.293 16.293 16.293) with tilt (0 0 0)
  216 atoms
include potential.mod
# NOTE: This script can be modified for different pair styles
# See in.elastic for more info.

reset_timestep 0

# Choose potential
pair_style	sw
pair_coeff * * Si.sw Si
Reading potential file Si.sw with DATE: 2007-06-11

# Setup neighbor style
neighbor 1.0 nsq
neigh_modify once no every 1 delay 0 check yes

# Setup output

fix avp all ave/time  10 10 100 c_thermo_press mode vector
thermo		100
thermo_style custom step temp pe press f_avp[1] f_avp[2] f_avp[3] f_avp[4] f_avp[5] f_avp[6]
thermo_modify norm no

# Setup MD

timestep 0.001
fix 4 all nve
fix 5 all langevin 300 300 0.01 123457

# Positive deformation

variable delta equal 0.02*16.293
variable deltaxy equal 0.02*xy
variable deltaxz equal 0.02*xz
variable deltayz equal 0.02*yz
change_box all xz delta 0.32586 remap units box
  triclinic box = (0 0 0) to (16.293 16.293 16.293) with tilt (0 0.32586 0)

# Run MD

run 1000
  1 neighbor list requests
  update every 1 steps, delay 0 steps, check yes
Step Temp PotEng Press avp[1] avp[2] avp[3] avp[4] avp[5] avp[6]
0    311.03943   -927.02971    3829.4805            0            0            0            0            0            0
Averages over the last 6 of 11 rows, steps 500 to 1000:
Temp PotEng Press avp[1] avp[2] avp[3] avp[4] avp[5] avp[6]
303.116 -927.998 3452.57 3387.21 3571.21 3568.61 -617.967 -10968.6 152.596
Loop time of 0.613971 on 1 procs for 1000 steps with 216 atoms

include potential.mod
# NOTE: This script can be modified for different pair styles
# See in.elastic for more info.

reset_timestep 0

# Choose potential
pair_style	sw
pair_coeff * * Si.sw Si
Reading potential file Si.sw with DATE: 2007-06-11

# Setup neighbor style
neighbor 1.0 nsq
neigh_modify once no every 1 delay 0 check yes

# Setup output

fix avp all ave/time  10 10 100 c_thermo_press mode vector
thermo		100
thermo_style custom step temp pe press f_avp[1] f_avp[2] f_avp[3] f_avp[4] f_avp[5] f_avp[6]
thermo_modify norm no

# Setup MD

timestep 0.001
fix 4 all nve
fix 5 all langevin 300 300 0.01 123457

run 300
Step Temp PotEng Press avp[1] avp[2] avp[3] avp[4] avp[5] avp[6]
0    283.31992   -928.08394     3170.649            0            0            0            0            0            0
Loop time of 0.177241 on 1 procs for 300 steps with 216 atoms

# Obtain new stress tensor

variable tmp equal pe
variable e1 equal -927.083688065708
variable tmp equal press
variable p1 equal 3662.56993200244
variable tmp equal pxx
variable pxx1 equal 3098.93249754338
variable tmp equal pyy
variable pyy1 equal 3767.35373897648
variable tmp equal pzz
variable pzz1 equal 4121.42355948746
variable tmp equal pxy
variable pxy1 equal -3451.14789971716
variable tmp equal pxz
variable pxz1 equal -7448.91889981104
variable tmp equal pyz
variable pyz1 equal -112.458703763273

# Compute elastic constant from pressure tensor

variable C1pos equal 2.20977195629205
variable C2pos equal 0.265708939856049
variable C3pos equal -2.93719485443065
variable C4pos equal -2.43795279785921
variable C5pos equal 36.6550244023646
variable C6pos equal 14.5332744899403

# Combine positive and negative

variable C15 equal 0.5*(-1.13558672000245+2.20977195629205)
variable C25 equal 0.5*(-0.300070143146349+0.265708939856049)
variable C35 equal 0.5*(0.294472246340051+-2.93719485443065)
variable C45 equal 0.5*(-0.0959643774693348+-2.43795279785921)
variable C55 equal 0.5*(55.1663167446701+36.6550244023646)
variable C65 equal 0.5*(0.00415075387011996+14.5332744899403)

# Delete dir to make sure it is not reused

variable dir delete

# uxy Perturbation

variable dir equal 6
include displace.mod
# NOTE: This script should not need to be
# modified. See in.elastic for more info.
#
# Find which reference length to use

variable len0 equal 16.293

# Reset box and simulation parameters

clear
box tilt large
read_restart restart.equil
  triclinic box = (0 0 0) to (16.293 16.293 16.293) with tilt (0 0 0)
  216 atoms
include potential.mod
# NOTE: This script can be modified for different pair styles
# See in.elastic for more info.

reset_timestep 0

# Choose potential
pair_style	sw
pair_coeff * * Si.sw Si
Reading potential file Si.sw with DATE: 2007-06-11

# Setup neighbor style
neighbor 1.0 nsq
neigh_modify once no every 1 delay 0 check yes

# Setup output

fix avp all ave/time  10 10 100 c_thermo_press mode vector
thermo		100
thermo_style custom step temp pe press f_avp[1] f_avp[2] f_avp[3] f_avp[4] f_avp[5] f_avp[6]
thermo_modify norm no

# Setup MD

timestep 0.001
fix 4 all nve
fix 5 all langevin 300 300 0.01 123457

# Negative deformation

variable delta equal -0.02*16.293
variable deltaxy equal -0.02*xy
variable deltaxz equal -0.02*xz
variable deltayz equal -0.02*yz
change_box all xy delta -0.32586 remap units box
  triclinic box = (0 0 0) to (16.293 16.293 16.293) with tilt (-0.32586 0 0)

# Run MD

run 1000
  1 neighbor list requests
  update every 1 steps, delay 0 steps, check yes
Step Temp PotEng Press avp[1] avp[2] avp[3] avp[4] avp[5] avp[6]
0    311.03943   -927.00537    3848.7121            0            0            0            0            0            0
Averages over the last 6 of 11 rows, steps 500 to 1000:
Temp PotEng Press avp[1] avp[2] avp[3] avp[4] avp[5] avp[6]
302.988 -928.001 3446.6 3401.21 3675.57 3446.74 10420.1 67.2733 123.968
Loop time of 0.600049 on 1 procs for 1000 steps with 216 atoms

include potential.mod
# NOTE: This script can be modified for different pair styles
# See in.elastic for more info.

reset_timestep 0

# Choose potential
pair_style	sw
pair_coeff * * Si.sw Si
Reading potential file Si.sw with DATE: 2007-06-11

# Setup neighbor style
neighbor 1.0 nsq
neigh_modify once no every 1 delay 0 check yes

# Setup output

fix avp all ave/time  10 10 100 c_thermo_press mode vector
thermo		100
thermo_style custom step temp pe press f_avp[1] f_avp[2] f_avp[3] f_avp[4] f_avp[5] f_avp[6]
thermo_modify norm no

# Setup MD

timestep 0.001
fix 4 all nve
fix 5 all langevin 300 300 0.01 123457

run 300
Step Temp PotEng Press avp[1] avp[2] avp[3] avp[4] avp[5] avp[6]
0    283.36509   -928.08544    3122.4357            0            0            0            0            0            0
Loop time of 0.177202 on 1 procs for 300 steps with 216 atoms

# Obtain new stress tensor

variable pxx1 equal f_avp[1]
variable pyy1 equal f_avp[2]
variable pzz1 equal f_avp[3]
variable pxy1 equal f_avp[4]
variable pxz1 equal f_avp[5]
variable pyz1 equal f_avp[6]

# Compute elastic constant from pressure tensor

variable C1neg equal -1.2242172782858
variable C2neg equal 0.157478271267951
variable C3neg equal -0.402468345909349
variable C4neg equal -0.0921064555460652
variable C5neg equal 0.00889467722338502
variable C6neg equal 55.1211772581595

# Reset box and simulation parameters

clear
box tilt large
read_restart restart.equil
  triclinic box = (0 0 0) to (16.293 16.293 16.293) with tilt (0 0 0)
  216 atoms
include potential.mod
# NOTE: This script can be modified for different pair styles
# See in.elastic for more info.

reset_timestep 0

# Choose potential
pair_style	sw
pair_coeff * * Si.sw Si
Reading potential file Si.sw with DATE: 2007-06-11

# Setup neighbor style
neighbor 1.0 nsq
neigh_modify once no every 1 delay 0 check yes

# Setup output

fix avp all ave/time  10 10 100 c_thermo_press mode vector
thermo		100
thermo_style custom step temp pe press f_avp[1] f_avp[2] f_avp[3] f_avp[4] f_avp[5] f_avp[6]
thermo_modify norm no

# Setup MD

timestep 0.001
fix 4 all nve
fix 5 all langevin 300 300 0.01 123457

# Positive deformation

variable delta equal 0.02*16.293
variable deltaxy equal 0.02*xy
variable deltaxz equal 0.02*xz
variable deltayz equal 0.02*yz
change_box all xy delta 0.32586 remap units box
  triclinic box = (0 0 0) to (16.293 16.293 16.293) with tilt (0.32586 0 0)

# Run MD

run 1000
  1 neighbor list requests
  update every 1 steps, delay 0 steps, check yes
Step Temp PotEng Press avp[1] avp[2] avp[3] avp[4] avp[5] avp[6]
0    311.03943   -926.64693    4045.7403            0            0            0            0            0            0
Averages over the last 6 of 11 rows, steps 500 to 1000:
Temp PotEng Press avp[1] avp[2] avp[3] avp[4] avp[5] avp[6]
303.09 -927.999 3468.16 3386.22 3702.43 3478.57 -11657.4 66.6773 117.649
Loop time of 0.600149 on 1 procs for 1000 steps with 216 atoms

include potential.mod
# NOTE: This script can be modified for different pair styles
# See in.elastic for more info.

reset_timestep 0

# Choose potential
pair_style	sw
pair_coeff * * Si.sw Si
Reading potential file Si.sw with DATE: 2007-06-11

# Setup neighbor style
neighbor 1.0 nsq
neigh_modify once no every 1 delay 0 check yes

# Setup output

fix avp all ave/time  10 10 100 c_thermo_press mode vector
thermo		100
thermo_style custom step temp pe press f_avp[1] f_avp[2] f_avp[3] f_avp[4] f_avp[5] f_avp[6]
thermo_modify norm no

# Setup MD

timestep 0.001
fix 4 all nve
fix 5 all langevin 300 300 0.01 123457

run 300
Step Temp PotEng Press avp[1] avp[2] avp[3] avp[4] avp[5] avp[6]
0    283.33682   -928.10207    3210.0345            0            0            0            0            0            0
Loop time of 0.179759 on 1 procs for 300 steps with 216 atoms

# Obtain new stress tensor

variable tmp equal pe
variable e1 equal -927.116457944535
variable tmp equal press
variable p1 equal 3758.75801266099
variable tmp equal pxx
variable pxx1 equal 2977.15580374606
variable tmp equal pyy
variable pyy1 equal 4090.18824921047
variable tmp equal pzz
variable pzz1 equal 4208.92998502646
variable tmp equal pxy
variable pxy1 equal -14444.3333843559
variable tmp equal pxz
variable pxz1 equal 3521.07930833982
variable tmp equal pyz
variable pyz1 equal -412.08069307006

# Compute elastic constant from pressure tensor

variable C1pos equal 2.81865542527865
variable C2pos equal -1.3484636113139
variable C3pos equal -3.37472698212565
variable C4pos equal -0.93984285132527
variable C5pos equal -18.1949666383897
variable C6pos equal 69.499201913134

# Combine positive and negative

variable C16 equal 0.5*(-1.2242172782858+2.81865542527865)
variable C26 equal 0.5*(0.157478271267951+-1.3484636113139)
variable C36 equal 0.5*(-0.402468345909349+-3.37472698212565)
variable C46 equal 0.5*(-0.0921064555460652+-0.93984285132527)
variable C56 equal 0.5*(0.00889467722338502+-18.1949666383897)
variable C66 equal 0.5*(55.1211772581595+69.499201913134)

# Delete dir to make sure it is not reused

variable dir delete

# Output final values

variable C11all equal 150.448355330911
variable C22all equal 149.582393936588
variable C33all equal 148.22801447405

variable C12all equal 0.5*(78.035439075031+77.1605835710123)
variable C13all equal 0.5*(78.0504242101335+75.9087164984838)
variable C23all equal 0.5*(77.0192953519993+75.7384194296348)

variable C44all equal 54.1796898894527
variable C55all equal 45.9106705735174
variable C66all equal 62.3101895856468

variable C14all equal 0.5*(0.5307275048254+-0.934170267028205)
variable C15all equal 0.5*(0.5370926181448+-8.74777516124012)
variable C16all equal 0.5*(0.797219073496425+6.96940837344427)

variable C24all equal 0.5*(-0.068205669399225+-0.75379652877473)
variable C25all equal 0.5*(-0.01718060164515+-8.59261879431962)
variable C26all equal 0.5*(-0.595492670022974+6.97266921243083)

variable C34all equal 0.5*(-1.41540258556472+-0.76424652089782)
variable C35all equal 0.5*(-1.3213613040453+-8.68937598399508)
variable C36all equal 0.5*(-1.8885976640175+6.86772658690622)

variable C45all equal 0.5*(-1.26695858766427+-9.64497660804427)
variable C46all equal 0.5*(-0.515974653435668+7.22317430932555)
variable C56all equal 0.5*(-9.09303598058316+7.26871262190521)

# Average moduli for cubic crystals

variable C11cubic equal (150.448355330911+149.582393936588+148.22801447405)/3.0
variable C12cubic equal (77.5980113230216+76.9795703543086+76.378857390817)/3.0
variable C44cubic equal (54.1796898894527+45.9106705735174+62.3101895856468)/3.0

variable bulkmodulus equal (149.41958791385+2*76.9854796893824)/3.0
variable shearmodulus1 equal 54.1335166828723
variable shearmodulus2 equal (149.41958791385-76.9854796893824)/2.0
variable poissonratio equal 1.0/(1.0+149.41958791385/76.9854796893824)

# For Stillinger-Weber silicon, the analytical results
# are known to be (E. R. Cowley, 1988):
#               C11 = 151.4 GPa
#               C12 = 76.4 GPa
#               C44 = 56.4 GPa

print "========================================="
=========================================
print "Components of the Elastic Constant Tensor"
Components of the Elastic Constant Tensor
print "========================================="
=========================================

Elastic Constant C11all = 150.448355330911 GPa
Elastic Constant C22all = 149.582393936588 GPa
Elastic Constant C33all = 148.22801447405 GPa

Elastic Constant C12all = 77.5980113230216 GPa
Elastic Constant C13all = 76.9795703543086 GPa
Elastic Constant C23all = 76.378857390817 GPa

Elastic Constant C44all = 54.1796898894527 GPa
Elastic Constant C55all = 45.9106705735174 GPa
Elastic Constant C66all = 62.3101895856468 GPa

Elastic Constant C14all = -0.201721381101403 GPa
Elastic Constant C15all = -4.10534127154766 GPa
Elastic Constant C16all = 3.88331372347035 GPa

Elastic Constant C24all = -0.411001099086978 GPa
Elastic Constant C25all = -4.30489969798238 GPa
Elastic Constant C26all = 3.18858827120393 GPa

Elastic Constant C34all = -1.08982455323127 GPa
Elastic Constant C35all = -5.00536864402019 GPa
Elastic Constant C36all = 2.48956446144436 GPa

Elastic Constant C45all = -5.45596759785427 GPa
Elastic Constant C46all = 3.35359982794494 GPa
Elastic Constant C56all = -0.912161679338975 GPa

print "========================================="
=========================================
print "Average properties for a cubic crystal"
Average properties for a cubic crystal
print "========================================="
=========================================

Bulk Modulus = 101.130182430872 GPa
Shear Modulus 1 = 54.1335166828723 GPa
Shear Modulus 2 = 36.2170541122338 GPa
Poisson Ratio = 0.34003426029446
